Version 4
SHEET 1 880 680
WIRE 112 -112 -32 -112
WIRE 272 -112 176 -112
WIRE -32 128 -32 -112
WIRE 272 128 272 -112
WIRE 272 288 272 208
WIRE -32 352 -32 208
FLAG -32 352 0
FLAG 272 288 0
SYMBOL voltage -32 112 R0
WINDOW 123 0 0 Left 2
WINDOW 39 0 0 Left 2
SYMATTR InstName V1
SYMATTR Value SINE(0 1 1)
SYMBOL cap 176 -128 R90
WINDOW 0 0 32 VBottom 2
WINDOW 3 32 32 VTop 2
SYMATTR InstName C1
SYMATTR Value 100µF
SYMBOL res 256 112 R0
SYMATTR InstName R2
SYMATTR Value 10K
TEXT -320 144 Left 2 !.tran 0.1s 2s 0.0 100
