Version 4
SHEET 1 1088 680
WIRE -144 -80 -256 -80
WIRE 352 -80 -144 -80
WIRE -144 -48 -144 -80
WIRE 320 -48 320 -64
WIRE 352 -48 352 -80
WIRE 288 -32 144 -32
WIRE 304 -32 288 -32
WIRE 352 -32 352 -48
WIRE 448 0 416 0
WIRE 464 0 448 0
WIRE -256 32 -256 -80
WIRE 144 32 144 -32
WIRE 144 32 -144 32
WIRE 288 32 224 32
WIRE 320 32 288 32
WIRE -144 48 -144 32
WIRE 352 48 352 32
WIRE 224 96 224 32
WIRE 224 96 48 96
WIRE 464 144 464 0
WIRE -256 160 -256 112
WIRE -144 160 -144 128
WIRE -144 160 -256 160
WIRE -80 176 -80 144
WIRE 48 176 48 96
WIRE -256 192 -256 160
WIRE -80 288 -80 256
WIRE 48 288 48 256
WIRE 48 288 -80 288
WIRE 352 288 352 48
WIRE 352 288 48 288
WIRE 464 288 464 224
WIRE 464 288 352 288
WIRE -80 304 -80 288
WIRE -80 304 -96 304
FLAG -80 304 0
FLAG -256 192 0
FLAG 448 0 Out
SYMBOL voltage -80 160 R0
WINDOW 123 0 0 Left 2
WINDOW 39 0 0 Left 2
WINDOW 3 -331 100 Left 2
SYMATTR Value PULSE(0 5 0 25u 0.00u 0 25u)
SYMATTR InstName V1
SYMBOL res 448 128 R0
SYMATTR InstName R1
SYMATTR Value 100
SYMBOL voltage -256 16 R0
WINDOW 123 0 0 Left 2
WINDOW 39 0 0 Left 2
SYMATTR InstName V2
SYMATTR Value 9
SYMBOL res -160 -64 R0
SYMATTR InstName R2
SYMATTR Value 1K
SYMBOL res -160 32 R0
SYMATTR InstName R3
SYMATTR Value 500
SYMBOL voltage 48 160 R0
WINDOW 3 -60 165 Left 2
WINDOW 123 0 0 Left 2
WINDOW 39 0 0 Left 2
SYMATTR Value SINE(0 5 1000)
SYMATTR InstName V3
SYMBOL Opamps\\LM301 352 0 R0
SYMATTR InstName X1
TEXT -416 320 Left 2 !.tran 0 100us 0 0.1us
TEXT 192 328 Left 2 !.lib http://www.cordellaudio.com/book/Cordell-Models.txt
