Version 4
SHEET 1 880 680
WIRE -32 16 -128 16
WIRE 160 16 -32 16
WIRE -32 48 -32 16
WIRE -128 64 -128 16
WIRE 160 96 160 16
WIRE 160 96 144 96
WIRE 144 112 144 96
WIRE -32 144 -32 128
WIRE 112 144 -32 144
WIRE 128 144 112 144
WIRE 272 144 256 144
WIRE 448 144 272 144
WIRE -32 160 -32 144
WIRE 112 208 48 208
WIRE 128 208 112 208
WIRE 272 208 256 208
WIRE 384 208 272 208
WIRE -128 240 -128 144
WIRE -32 240 -128 240
WIRE 48 256 48 208
WIRE 144 256 144 240
WIRE 384 256 384 208
WIRE 448 256 448 224
WIRE 448 256 384 256
WIRE -128 272 -128 240
WIRE 48 336 48 320
WIRE 112 336 48 336
WIRE 144 336 144 256
WIRE 144 336 112 336
WIRE 112 352 112 336
FLAG -128 272 0
FLAG 112 352 0
SYMBOL Opamps\\LTC6409 176 176 R0
SYMATTR InstName U1
SYMBOL voltage -128 48 R0
WINDOW 123 0 0 Left 2
WINDOW 39 0 0 Left 2
SYMATTR InstName V1
SYMATTR Value 9
SYMBOL res -48 32 R0
SYMATTR InstName R1
SYMATTR Value 1k
SYMBOL res -48 144 R0
SYMATTR InstName R2
SYMATTR Value 500
SYMBOL voltage 48 240 R0
WINDOW 3 -174 108 Left 2
WINDOW 123 0 0 Left 2
WINDOW 39 0 0 Left 2
SYMATTR InstName V2
SYMATTR Value SINE(0 5 1000)
SYMBOL res 432 128 R0
SYMATTR InstName R3
SYMATTR Value 100
TEXT -368 208 Left 2 !.tran 0 1ms 0 0.1ms
