Version 4
SHEET 1 880 680
WIRE 160 144 48 144
WIRE 256 144 240 144
WIRE 352 144 256 144
WIRE 416 144 352 144
WIRE 560 144 496 144
WIRE 48 160 48 144
WIRE 352 160 352 144
WIRE 240 224 240 192
WIRE 448 224 352 224
WIRE 560 224 560 208
WIRE 560 224 448 224
WIRE 448 240 448 224
FLAG 48 240 0
FLAG 240 304 0
FLAG 448 240 0
SYMBOL cap 544 144 R0
SYMATTR InstName C1
SYMATTR Value 10µ
SYMBOL ind 400 160 R270
WINDOW 0 32 56 VTop 2
WINDOW 3 5 56 VBottom 2
SYMATTR InstName L1
SYMATTR Value 1.5m
SYMBOL diode 368 224 R180
WINDOW 0 24 64 Left 2
WINDOW 3 24 0 Left 2
SYMATTR InstName D1
SYMBOL voltage 48 144 R0
WINDOW 123 0 0 Left 2
WINDOW 39 0 0 Left 2
SYMATTR InstName V1
SYMATTR Value 6
SYMBOL voltage 240 208 R0
WINDOW 123 0 0 Left 2
WINDOW 39 0 0 Left 2
SYMATTR InstName V2
SYMATTR Value PULSE(0 8 1n .1u .1u 1.25u 2.5u 50)
SYMBOL nmos 160 192 R270
SYMATTR InstName M1
SYMATTR Value AP9465GEM
TEXT 14 264 Left 2 !.tran 50u
